Circuit: * \\juan.heise.de\makered\cm\Zielscheibe\make Zielscheibe_Platine_APP_Sourcen\Spice\Abs_Verst_V8_cm.asc

Limiting rise time of source v5 to 0.0001
Limiting fall time of source v5 to 0.0001
WARNING: Less than two connections to node NC_02.  This node is used by S:SCHMITT-TRIGGER:1.
Direct Newton iteration failed to find .op point.  (Use ".option noopiter" to skip.)
Starting Gmin stepping
Gmin = 10
Gmin = 1.07374
vernier = 0.5
vernier = 0.25
vernier = 0.125
vernier = 0.0625
Gmin = 1.02519
vernier = 0.03125
vernier = 0.015625
vernier = 0.0078125
Gmin = 1.00542
vernier = 0.00390625
vernier = 0.00195313
vernier = 0.000976563
Gmin = 1.00297
vernier = 0.000488281
Gmin = 1.0015
Gmin = 0
Gmin stepping failed

Starting source stepping with srcstepmethod=0
Source Step = 3.0303%
Source Step = 33.3333%
Source Step = 51.8939%
Source Step = 53.7879%
Source Step = 55.6818%
Source Step = 57.5758%
Source Step = 59.4697%
vernier = 0.09375
Source Step = 61.4583%
Source Step = 64.2992%
Source Step = 67.1402%
Source Step = 69.9811%
Source Step = 72.822%
Source Step = 75.6629%
vernier = 0.140625
Source Step = 79.9242%
Source Step = 84.1856%
Source Step = 88.447%
Source Step = 92.7083%
Source Step = 96.9697%
vernier = 0.210938
Source stepping succeeded in finding the operating point.




Date: Fri Nov 16 13:41:15 2018
Total elapsed time: 0.533 seconds.

tnom = 27
temp = 27
method = modified trap
totiter = 8150
traniter = 4389
tranpoints = 1653
accept = 1455
rejected = 198
matrix size = 131
fillins = 114
solver = Normal
Matrix Compiler1: 13.91 KB object code size  2.3/1.1/[0.5]
Matrix Compiler2: 13.25 KB object code size  1.3/2.0/[0.5]

